
---------- Begin Simulation Statistics ----------
final_tick                               10604568173000                       # Number of ticks from beginning of simulation (restored from checkpoints and never reset)
host_inst_rate                                  11233                       # Simulator instruction rate (inst/s)
host_mem_usage                               16943692                       # Number of bytes of host memory used
host_op_rate                                    18570                       # Simulator op (including micro ops) rate (op/s)
host_seconds                                     0.01                       # Real time elapsed on the host
host_tick_rate                               81637846                       # Simulator tick rate (ticks/s)
sim_freq                                 1000000000000                       # Frequency of simulated ticks
sim_insts                                         110                       # Number of instructions simulated
sim_ops                                           184                       # Number of ops (including micro ops) simulated
sim_seconds                                  0.000001                       # Number of seconds simulated
sim_ticks                                      811000                       # Number of ticks simulated
system.cpu.Branches                                 2                       # Number of branches fetched
system.cpu.committedInsts                          10                       # Number of instructions committed
system.cpu.committedOps                            16                       # Number of ops (including micro ops) committed
system.cpu.dtb.rdAccesses                           2                       # TLB accesses on read requests
system.cpu.dtb.rdMisses                             0                       # TLB misses on read requests
system.cpu.dtb.wrAccesses                           0                       # TLB accesses on write requests
system.cpu.dtb.wrMisses                             0                       # TLB misses on write requests
system.cpu.idle_fraction                            0                       # Percentage of idle cycles
system.cpu.itb.rdAccesses                           0                       # TLB accesses on read requests
system.cpu.itb.rdMisses                             0                       # TLB misses on read requests
system.cpu.itb.wrAccesses                          14                       # TLB accesses on write requests
system.cpu.itb.wrMisses                             0                       # TLB misses on write requests
system.cpu.not_idle_fraction                        1                       # Percentage of non-idle cycles
system.cpu.numCycles                               20                       # number of cpu cycles simulated
system.cpu.numWorkItemsCompleted                    0                       # number of work items this cpu completed
system.cpu.numWorkItemsStarted                      0                       # number of work items this cpu started
system.cpu.num_busy_cycles                         20                       # Number of busy cycles
system.cpu.num_cc_register_reads                   10                       # number of times the CC registers were read
system.cpu.num_cc_register_writes                   6                       # number of times the CC registers were written
system.cpu.num_conditional_control_insts            2                       # number of instructions that are conditional controls
system.cpu.num_fp_alu_accesses                      0                       # Number of float alu accesses
system.cpu.num_fp_insts                             0                       # number of float instructions
system.cpu.num_fp_register_reads                    0                       # number of times the floating registers were read
system.cpu.num_fp_register_writes                   0                       # number of times the floating registers were written
system.cpu.num_func_calls                           0                       # number of times a function call or return occured
system.cpu.num_idle_cycles                          0                       # Number of idle cycles
system.cpu.num_int_alu_accesses                    16                       # Number of integer alu accesses
system.cpu.num_int_insts                           16                       # number of integer instructions
system.cpu.num_int_register_reads                  35                       # number of times the integer registers were read
system.cpu.num_int_register_writes                 14                       # number of times the integer registers were written
system.cpu.num_load_insts                           2                       # Number of load instructions
system.cpu.num_mem_refs                             2                       # number of memory refs
system.cpu.num_store_insts                          0                       # Number of store instructions
system.cpu.num_vec_alu_accesses                     0                       # Number of vector alu accesses
system.cpu.num_vec_insts                            0                       # number of vector instructions
system.cpu.num_vec_register_reads                   0                       # number of times the vector registers were read
system.cpu.num_vec_register_writes                  0                       # number of times the vector registers were written
system.cpu.op_class::No_OpClass                     0      0.00%      0.00% # Class of executed instruction
system.cpu.op_class::IntAlu                        14     87.50%     87.50% # Class of executed instruction
system.cpu.op_class::IntMult                        0      0.00%     87.50% # Class of executed instruction
system.cpu.op_class::IntDiv                         0      0.00%     87.50% # Class of executed instruction
system.cpu.op_class::FloatAdd                       0      0.00%     87.50% # Class of executed instruction
system.cpu.op_class::FloatCmp                       0      0.00%     87.50% # Class of executed instruction
system.cpu.op_class::FloatCvt                       0      0.00%     87.50% # Class of executed instruction
system.cpu.op_class::FloatMult                      0      0.00%     87.50% # Class of executed instruction
system.cpu.op_class::FloatMultAcc                   0      0.00%     87.50% # Class of executed instruction
system.cpu.op_class::FloatDiv                       0      0.00%     87.50% # Class of executed instruction
system.cpu.op_class::FloatMisc                      0      0.00%     87.50% # Class of executed instruction
system.cpu.op_class::FloatSqrt                      0      0.00%     87.50% # Class of executed instruction
system.cpu.op_class::SimdAdd                        0      0.00%     87.50% # Class of executed instruction
system.cpu.op_class::SimdAddAcc                     0      0.00%     87.50% # Class of executed instruction
system.cpu.op_class::SimdAlu                        0      0.00%     87.50% # Class of executed instruction
system.cpu.op_class::SimdCmp                        0      0.00%     87.50% # Class of executed instruction
system.cpu.op_class::SimdCvt                        0      0.00%     87.50% # Class of executed instruction
system.cpu.op_class::SimdMisc                       0      0.00%     87.50% # Class of executed instruction
system.cpu.op_class::SimdMult                       0      0.00%     87.50% # Class of executed instruction
system.cpu.op_class::SimdMultAcc                    0      0.00%     87.50% # Class of executed instruction
system.cpu.op_class::SimdShift                      0      0.00%     87.50% # Class of executed instruction
system.cpu.op_class::SimdShiftAcc                   0      0.00%     87.50% # Class of executed instruction
system.cpu.op_class::SimdDiv                        0      0.00%     87.50% # Class of executed instruction
system.cpu.op_class::SimdSqrt                       0      0.00%     87.50% # Class of executed instruction
system.cpu.op_class::SimdFloatAdd                   0      0.00%     87.50% # Class of executed instruction
system.cpu.op_class::SimdFloatAlu                   0      0.00%     87.50% # Class of executed instruction
system.cpu.op_class::SimdFloatCmp                   0      0.00%     87.50% # Class of executed instruction
system.cpu.op_class::SimdFloatCvt                   0      0.00%     87.50% # Class of executed instruction
system.cpu.op_class::SimdFloatDiv                   0      0.00%     87.50% # Class of executed instruction
system.cpu.op_class::SimdFloatMisc                  0      0.00%     87.50% # Class of executed instruction
system.cpu.op_class::SimdFloatMult                  0      0.00%     87.50% # Class of executed instruction
system.cpu.op_class::SimdFloatMultAcc               0      0.00%     87.50% # Class of executed instruction
system.cpu.op_class::SimdFloatSqrt                  0      0.00%     87.50% # Class of executed instruction
system.cpu.op_class::SimdReduceAdd                  0      0.00%     87.50% # Class of executed instruction
system.cpu.op_class::SimdReduceAlu                  0      0.00%     87.50% # Class of executed instruction
system.cpu.op_class::SimdReduceCmp                  0      0.00%     87.50% # Class of executed instruction
system.cpu.op_class::SimdFloatReduceAdd             0      0.00%     87.50% # Class of executed instruction
system.cpu.op_class::SimdFloatReduceCmp             0      0.00%     87.50% # Class of executed instruction
system.cpu.op_class::SimdAes                        0      0.00%     87.50% # Class of executed instruction
system.cpu.op_class::SimdAesMix                     0      0.00%     87.50% # Class of executed instruction
system.cpu.op_class::SimdSha1Hash                   0      0.00%     87.50% # Class of executed instruction
system.cpu.op_class::SimdSha1Hash2                  0      0.00%     87.50% # Class of executed instruction
system.cpu.op_class::SimdSha256Hash                 0      0.00%     87.50% # Class of executed instruction
system.cpu.op_class::SimdSha256Hash2                0      0.00%     87.50% # Class of executed instruction
system.cpu.op_class::SimdShaSigma2                  0      0.00%     87.50% # Class of executed instruction
system.cpu.op_class::SimdShaSigma3                  0      0.00%     87.50% # Class of executed instruction
system.cpu.op_class::SimdPredAlu                    0      0.00%     87.50% # Class of executed instruction
system.cpu.op_class::MemRead                        2     12.50%    100.00% # Class of executed instruction
system.cpu.op_class::MemWrite                       0      0.00%    100.00% # Class of executed instruction
system.cpu.op_class::FloatMemRead                   0      0.00%    100.00% # Class of executed instruction
system.cpu.op_class::FloatMemWrite                  0      0.00%    100.00% # Class of executed instruction
system.cpu.op_class::IprAccess                      0      0.00%    100.00% # Class of executed instruction
system.cpu.op_class::InstPrefetch                   0      0.00%    100.00% # Class of executed instruction
system.cpu.op_class::total                         16                       # Class of executed instruction
system.cpu.workload.numSyscalls                     0                       # Number of system calls
system.membus.snoop_filter.hit_multi_requests            0                       # Number of requests hitting in the snoop filter with multiple (>1) holders of the requested data.
system.membus.snoop_filter.hit_multi_snoops            0                       # Number of snoops hitting in the snoop filter with multiple (>1) holders of the requested data.
system.membus.snoop_filter.hit_single_requests            0                       # Number of requests hitting in the snoop filter with a single holder of the requested data.
system.membus.snoop_filter.hit_single_snoops            0                       # Number of snoops hitting in the snoop filter with a single holder of the requested data.
system.membus.snoop_filter.tot_requests            23                       # Total number of requests made to the snoop filter.
system.membus.snoop_filter.tot_snoops               0                       # Total number of snoops made to the snoop filter.
system.switch_cpus.branchPred.BTBCorrect            0                       # Number of correct BTB predictions (this stat may not work properly.
system.switch_cpus.branchPred.BTBHitPct      0.000000                       # BTB Hit Percentage
system.switch_cpus.branchPred.BTBHits               0                       # Number of BTB hits
system.switch_cpus.branchPred.BTBLookups           54                       # Number of BTB lookups
system.switch_cpus.branchPred.RASInCorrect            0                       # Number of incorrect RAS predictions.
system.switch_cpus.branchPred.condIncorrect           14                       # Number of conditional branches incorrect
system.switch_cpus.branchPred.condPredicted           77                       # Number of conditional branches predicted
system.switch_cpus.branchPred.indirectHits            0                       # Number of indirect target hits.
system.switch_cpus.branchPred.indirectLookups           54                       # Number of indirect predictor lookups.
system.switch_cpus.branchPred.indirectMisses           54                       # Number of indirect misses.
system.switch_cpus.branchPred.lookups              83                       # Number of BP lookups
system.switch_cpus.branchPred.usedRAS               6                       # Number of times the RAS was used to get a target.
system.switch_cpus.branchPredindirectMispredicted            7                       # Number of mispredicted indirect branches.
system.switch_cpus.cc_regfile_reads               175                       # number of cc regfile reads
system.switch_cpus.cc_regfile_writes              135                       # number of cc regfile writes
system.switch_cpus.commit.amos                      0                       # Number of atomic instructions committed
system.switch_cpus.commit.branchMispredicts           35                       # The number of times a branch was mispredicted
system.switch_cpus.commit.branches                 18                       # Number of branches committed
system.switch_cpus.commit.bw_lim_events             8                       # number cycles where commit BW limit reached
system.switch_cpus.commit.commitSquashedInsts          515                       # The number of squashed insts skipped by commit
system.switch_cpus.commit.committedInsts          100                       # Number of instructions committed
system.switch_cpus.commit.committedOps            168                       # Number of ops (including micro ops) committed
system.switch_cpus.commit.committed_per_cycle::samples          799                       # Number of insts commited each cycle
system.switch_cpus.commit.committed_per_cycle::mean     0.210263                       # Number of insts commited each cycle
system.switch_cpus.commit.committed_per_cycle::stdev     0.971186                       # Number of insts commited each cycle
system.switch_cpus.commit.committed_per_cycle::underflows            0      0.00%      0.00% # Number of insts commited each cycle
system.switch_cpus.commit.committed_per_cycle::0          732     91.61%     91.61% # Number of insts commited each cycle
system.switch_cpus.commit.committed_per_cycle::1           40      5.01%     96.62% # Number of insts commited each cycle
system.switch_cpus.commit.committed_per_cycle::2            4      0.50%     97.12% # Number of insts commited each cycle
system.switch_cpus.commit.committed_per_cycle::3            7      0.88%     98.00% # Number of insts commited each cycle
system.switch_cpus.commit.committed_per_cycle::4            6      0.75%     98.75% # Number of insts commited each cycle
system.switch_cpus.commit.committed_per_cycle::5            1      0.13%     98.87% # Number of insts commited each cycle
system.switch_cpus.commit.committed_per_cycle::6            1      0.13%     99.00% # Number of insts commited each cycle
system.switch_cpus.commit.committed_per_cycle::7            0      0.00%     99.00% # Number of insts commited each cycle
system.switch_cpus.commit.committed_per_cycle::8            8      1.00%    100.00% # Number of insts commited each cycle
system.switch_cpus.commit.committed_per_cycle::overflows            0      0.00%    100.00% # Number of insts commited each cycle
system.switch_cpus.commit.committed_per_cycle::min_value            0                       # Number of insts commited each cycle
system.switch_cpus.commit.committed_per_cycle::max_value            8                       # Number of insts commited each cycle
system.switch_cpus.commit.committed_per_cycle::total          799                       # Number of insts commited each cycle
system.switch_cpus.commit.fp_insts                  0                       # Number of committed floating point instructions.
system.switch_cpus.commit.function_calls            0                       # Number of function calls committed.
system.switch_cpus.commit.int_insts               168                       # Number of committed integer instructions.
system.switch_cpus.commit.loads                    27                       # Number of loads committed
system.switch_cpus.commit.membars                   0                       # Number of memory barriers committed
system.switch_cpus.commit.mispred_commit_branch           11                       # mein_hi_hun
system.switch_cpus.commit.op_class_0::No_OpClass            0      0.00%      0.00% # Class of committed instruction
system.switch_cpus.commit.op_class_0::IntAlu          135     80.36%     80.36% # Class of committed instruction
system.switch_cpus.commit.op_class_0::IntMult            0      0.00%     80.36% # Class of committed instruction
system.switch_cpus.commit.op_class_0::IntDiv            0      0.00%     80.36% # Class of committed instruction
system.switch_cpus.commit.op_class_0::FloatAdd            0      0.00%     80.36% # Class of committed instruction
system.switch_cpus.commit.op_class_0::FloatCmp            0      0.00%     80.36% # Class of committed instruction
system.switch_cpus.commit.op_class_0::FloatCvt            0      0.00%     80.36% # Class of committed instruction
system.switch_cpus.commit.op_class_0::FloatMult            0      0.00%     80.36% # Class of committed instruction
system.switch_cpus.commit.op_class_0::FloatMultAcc            0      0.00%     80.36% # Class of committed instruction
system.switch_cpus.commit.op_class_0::FloatDiv            0      0.00%     80.36% # Class of committed instruction
system.switch_cpus.commit.op_class_0::FloatMisc            0      0.00%     80.36% # Class of committed instruction
system.switch_cpus.commit.op_class_0::FloatSqrt            0      0.00%     80.36% # Class of committed instruction
system.switch_cpus.commit.op_class_0::SimdAdd            0      0.00%     80.36% # Class of committed instruction
system.switch_cpus.commit.op_class_0::SimdAddAcc            0      0.00%     80.36% # Class of committed instruction
system.switch_cpus.commit.op_class_0::SimdAlu            0      0.00%     80.36% # Class of committed instruction
system.switch_cpus.commit.op_class_0::SimdCmp            0      0.00%     80.36% # Class of committed instruction
system.switch_cpus.commit.op_class_0::SimdCvt            0      0.00%     80.36% # Class of committed instruction
system.switch_cpus.commit.op_class_0::SimdMisc            0      0.00%     80.36% # Class of committed instruction
system.switch_cpus.commit.op_class_0::SimdMult            0      0.00%     80.36% # Class of committed instruction
system.switch_cpus.commit.op_class_0::SimdMultAcc            0      0.00%     80.36% # Class of committed instruction
system.switch_cpus.commit.op_class_0::SimdShift            0      0.00%     80.36% # Class of committed instruction
system.switch_cpus.commit.op_class_0::SimdShiftAcc            0      0.00%     80.36% # Class of committed instruction
system.switch_cpus.commit.op_class_0::SimdDiv            0      0.00%     80.36% # Class of committed instruction
system.switch_cpus.commit.op_class_0::SimdSqrt            0      0.00%     80.36% # Class of committed instruction
system.switch_cpus.commit.op_class_0::SimdFloatAdd            0      0.00%     80.36% # Class of committed instruction
system.switch_cpus.commit.op_class_0::SimdFloatAlu            0      0.00%     80.36% # Class of committed instruction
system.switch_cpus.commit.op_class_0::SimdFloatCmp            0      0.00%     80.36% # Class of committed instruction
system.switch_cpus.commit.op_class_0::SimdFloatCvt            0      0.00%     80.36% # Class of committed instruction
system.switch_cpus.commit.op_class_0::SimdFloatDiv            0      0.00%     80.36% # Class of committed instruction
system.switch_cpus.commit.op_class_0::SimdFloatMisc            0      0.00%     80.36% # Class of committed instruction
system.switch_cpus.commit.op_class_0::SimdFloatMult            0      0.00%     80.36% # Class of committed instruction
system.switch_cpus.commit.op_class_0::SimdFloatMultAcc            0      0.00%     80.36% # Class of committed instruction
system.switch_cpus.commit.op_class_0::SimdFloatSqrt            0      0.00%     80.36% # Class of committed instruction
system.switch_cpus.commit.op_class_0::SimdReduceAdd            0      0.00%     80.36% # Class of committed instruction
system.switch_cpus.commit.op_class_0::SimdReduceAlu            0      0.00%     80.36% # Class of committed instruction
system.switch_cpus.commit.op_class_0::SimdReduceCmp            0      0.00%     80.36% # Class of committed instruction
system.switch_cpus.commit.op_class_0::SimdFloatReduceAdd            0      0.00%     80.36% # Class of committed instruction
system.switch_cpus.commit.op_class_0::SimdFloatReduceCmp            0      0.00%     80.36% # Class of committed instruction
system.switch_cpus.commit.op_class_0::SimdAes            0      0.00%     80.36% # Class of committed instruction
system.switch_cpus.commit.op_class_0::SimdAesMix            0      0.00%     80.36% # Class of committed instruction
system.switch_cpus.commit.op_class_0::SimdSha1Hash            0      0.00%     80.36% # Class of committed instruction
system.switch_cpus.commit.op_class_0::SimdSha1Hash2            0      0.00%     80.36% # Class of committed instruction
system.switch_cpus.commit.op_class_0::SimdSha256Hash            0      0.00%     80.36% # Class of committed instruction
system.switch_cpus.commit.op_class_0::SimdSha256Hash2            0      0.00%     80.36% # Class of committed instruction
system.switch_cpus.commit.op_class_0::SimdShaSigma2            0      0.00%     80.36% # Class of committed instruction
system.switch_cpus.commit.op_class_0::SimdShaSigma3            0      0.00%     80.36% # Class of committed instruction
system.switch_cpus.commit.op_class_0::SimdPredAlu            0      0.00%     80.36% # Class of committed instruction
system.switch_cpus.commit.op_class_0::MemRead           27     16.07%     96.43% # Class of committed instruction
system.switch_cpus.commit.op_class_0::MemWrite            6      3.57%    100.00% # Class of committed instruction
system.switch_cpus.commit.op_class_0::FloatMemRead            0      0.00%    100.00% # Class of committed instruction
system.switch_cpus.commit.op_class_0::FloatMemWrite            0      0.00%    100.00% # Class of committed instruction
system.switch_cpus.commit.op_class_0::IprAccess            0      0.00%    100.00% # Class of committed instruction
system.switch_cpus.commit.op_class_0::InstPrefetch            0      0.00%    100.00% # Class of committed instruction
system.switch_cpus.commit.op_class_0::total          168                       # Class of committed instruction
system.switch_cpus.commit.refs                     33                       # Number of memory references committed
system.switch_cpus.commit.swp_count                 0                       # Number of s/w prefetches committed
system.switch_cpus.commit.vec_insts                 0                       # Number of committed Vector instructions.
system.switch_cpus.committedInsts                 100                       # Number of Instructions Simulated
system.switch_cpus.committedOps                   168                       # Number of Ops (including micro ops) Simulated
system.switch_cpus.cpi                      16.020000                       # CPI: Cycles Per Instruction
system.switch_cpus.cpi_total                16.020000                       # CPI: Total CPI of All Threads
system.switch_cpus.decode.BlockedCycles           179                       # Number of cycles decode is blocked
system.switch_cpus.decode.DecodedInsts            802                       # Number of instructions handled by decode
system.switch_cpus.decode.IdleCycles              570                       # Number of cycles decode is idle
system.switch_cpus.decode.RunCycles               107                       # Number of cycles decode is running
system.switch_cpus.decode.SquashCycles             38                       # Number of cycles decode is squashing
system.switch_cpus.decode.UnblockCycles            14                       # Number of cycles decode is unblocking
system.switch_cpus.dtb.rdAccesses                 111                       # TLB accesses on read requests
system.switch_cpus.dtb.rdMisses                     8                       # TLB misses on read requests
system.switch_cpus.dtb.wrAccesses                  32                       # TLB accesses on write requests
system.switch_cpus.dtb.wrMisses                     2                       # TLB misses on write requests
system.switch_cpus.fetch.Branches                  83                       # Number of branches that fetch encountered
system.switch_cpus.fetch.CacheLines                48                       # Number of cache lines fetched
system.switch_cpus.fetch.Cycles                   247                       # Number of cycles fetch has run and was not squashing or blocked
system.switch_cpus.fetch.IcacheSquashes             8                       # Number of outstanding Icache misses that were squashed
system.switch_cpus.fetch.Insts                    483                       # Number of instructions fetch has processed
system.switch_cpus.fetch.MiscStallCycles           21                       # Number of cycles fetch has spent waiting on interrupts, or bad addresses, or out of MSHRs
system.switch_cpus.fetch.PendingTrapStallCycles          162                       # Number of stall cycles due to pending traps
system.switch_cpus.fetch.SquashCycles              76                       # Number of cycles fetch has spent squashing
system.switch_cpus.fetch.branchRate          0.051810                       # Number of branch fetches per cycle
system.switch_cpus.fetch.icacheStallCycles          447                       # Number of cycles fetch is stalled on an Icache miss
system.switch_cpus.fetch.predictedBranches            6                       # Number of branches that fetch has predicted taken
system.switch_cpus.fetch.rate                0.301498                       # Number of inst fetches per cycle
system.switch_cpus.fetch.rateDist::samples          915                       # Number of instructions fetched each cycle (Total)
system.switch_cpus.fetch.rateDist::mean      0.972678                       # Number of instructions fetched each cycle (Total)
system.switch_cpus.fetch.rateDist::stdev     2.519577                       # Number of instructions fetched each cycle (Total)
system.switch_cpus.fetch.rateDist::underflows            0      0.00%      0.00% # Number of instructions fetched each cycle (Total)
system.switch_cpus.fetch.rateDist::0              783     85.57%     85.57% # Number of instructions fetched each cycle (Total)
system.switch_cpus.fetch.rateDist::1                5      0.55%     86.12% # Number of instructions fetched each cycle (Total)
system.switch_cpus.fetch.rateDist::2               10      1.09%     87.21% # Number of instructions fetched each cycle (Total)
system.switch_cpus.fetch.rateDist::3                6      0.66%     87.87% # Number of instructions fetched each cycle (Total)
system.switch_cpus.fetch.rateDist::4                3      0.33%     88.20% # Number of instructions fetched each cycle (Total)
system.switch_cpus.fetch.rateDist::5                6      0.66%     88.85% # Number of instructions fetched each cycle (Total)
system.switch_cpus.fetch.rateDist::6                4      0.44%     89.29% # Number of instructions fetched each cycle (Total)
system.switch_cpus.fetch.rateDist::7                3      0.33%     89.62% # Number of instructions fetched each cycle (Total)
system.switch_cpus.fetch.rateDist::8               95     10.38%    100.00% # Number of instructions fetched each cycle (Total)
system.switch_cpus.fetch.rateDist::overflows            0      0.00%    100.00% # Number of instructions fetched each cycle (Total)
system.switch_cpus.fetch.rateDist::min_value            0                       # Number of instructions fetched each cycle (Total)
system.switch_cpus.fetch.rateDist::max_value            8                       # Number of instructions fetched each cycle (Total)
system.switch_cpus.fetch.rateDist::total          915                       # Number of instructions fetched each cycle (Total)
system.switch_cpus.fp_regfile_writes               56                       # number of floating regfile writes
system.switch_cpus.idleCycles                     687                       # Total number of cycles that the CPU has spent unscheduled due to idling
system.switch_cpus.iew.Average_branch_resolution_cycles            0                       # sirf mispred wala
system.switch_cpus.iew.branchMispredicts           37                       # Number of branch mispredicts detected at execute
system.switch_cpus.iew.exec_branches               29                       # Number of branches executed
system.switch_cpus.iew.exec_nop                     0                       # number of nop insts executed
system.switch_cpus.iew.exec_rate             0.337703                       # Inst execution rate
system.switch_cpus.iew.exec_refs                  143                       # number of memory reference insts executed
system.switch_cpus.iew.exec_stores                 32                       # Number of stores executed
system.switch_cpus.iew.exec_swp                     0                       # number of swp insts executed
system.switch_cpus.iew.global_million_exceeded_g            0                       # multiple with  million wala
system.switch_cpus.iew.global_million_timer_g          560                       # less than million wala
system.switch_cpus.iew.iewBlockCycles             157                       # Number of cycles IEW is blocking
system.switch_cpus.iew.iewDispLoadInsts           141                       # Number of dispatched load instructions
system.switch_cpus.iew.iewDispNonSpecInsts            0                       # Number of dispatched non-speculative instructions
system.switch_cpus.iew.iewDispSquashedInsts            0                       # Number of squashed instructions skipped by dispatch
system.switch_cpus.iew.iewDispStoreInsts           48                       # Number of dispatched store instructions
system.switch_cpus.iew.iewDispatchedInsts          727                       # Number of instructions dispatched to IQ
system.switch_cpus.iew.iewExecLoadInsts           111                       # Number of load instructions executed
system.switch_cpus.iew.iewExecSquashedInsts           26                       # Number of squashed instructions skipped in execute
system.switch_cpus.iew.iewExecutedInsts           541                       # Number of executed instructions
system.switch_cpus.iew.iewIQFullEvents              2                       # Number of times the IQ has become full, causing a stall
system.switch_cpus.iew.iewIdleCycles                0                       # Number of cycles IEW is idle
system.switch_cpus.iew.iewLSQFullEvents             0                       # Number of times the LSQ has become full, causing a stall
system.switch_cpus.iew.iewSquashCycles             38                       # Number of cycles IEW is squashing
system.switch_cpus.iew.iewUnblockCycles             2                       # Number of cycles IEW is unblocking
system.switch_cpus.iew.lsq.thread0.blockedLoads            0                       # Number of blocked loads due to partial load-store forwarding
system.switch_cpus.iew.lsq.thread0.cacheBlocked            0                       # Number of times an access to memory failed due to the cache being blocked
system.switch_cpus.iew.lsq.thread0.forwLoads            0                       # Number of loads that had data forwarded from stores
system.switch_cpus.iew.lsq.thread0.ignoredResponses            0                       # Number of memory responses ignored because the instruction is squashed
system.switch_cpus.iew.lsq.thread0.invAddrLoads            0                       # Number of loads ignored due to an invalid address
system.switch_cpus.iew.lsq.thread0.invAddrSwpfs            0                       # Number of software prefetches ignored due to an invalid address
system.switch_cpus.iew.lsq.thread0.memOrderViolation            5                       # Number of memory ordering violations
system.switch_cpus.iew.lsq.thread0.night5            0                       # Number of loads that were rescheduled
system.switch_cpus.iew.lsq.thread0.rescheduledLoads            0                       # Number of loads that were rescheduled
system.switch_cpus.iew.lsq.thread0.squashedLoads          106                       # Number of loads squashed
system.switch_cpus.iew.lsq.thread0.squashedStores           39                       # Number of stores squashed
system.switch_cpus.iew.memOrderViolationEvents            5                       # Number of memory order violations
system.switch_cpus.iew.predictedNotTakenIncorrect           37                       # Number of branches that were predicted not taken incorrectly
system.switch_cpus.iew.predictedTakenIncorrect            0                       # Number of branches that were predicted taken incorrectly
system.switch_cpus.iew.td                           0                       # Number of td executed instructions
system.switch_cpus.iew.wb_consumers               530                       # num instructions consuming a value
system.switch_cpus.iew.wb_count                   488                       # cumulative count of insts written-back
system.switch_cpus.iew.wb_fanout             0.709434                       # average fanout of values written-back
system.switch_cpus.iew.wb_producers               376                       # num instructions producing a value
system.switch_cpus.iew.wb_rate               0.304619                       # insts written-back per cycle
system.switch_cpus.iew.wb_sent                    519                       # cumulative count of insts sent to commit
system.switch_cpus.int_regfile_reads              804                       # number of integer regfile reads
system.switch_cpus.int_regfile_writes             473                       # number of integer regfile writes
system.switch_cpus.ipc                       0.062422                       # IPC: Instructions Per Cycle
system.switch_cpus.ipc_total                 0.062422                       # IPC: Total IPC of All Threads
system.switch_cpus.iq.FU_type_0::No_OpClass           23      4.00%      4.00% # Type of FU issued
system.switch_cpus.iq.FU_type_0::IntAlu           397     69.04%     73.04% # Type of FU issued
system.switch_cpus.iq.FU_type_0::IntMult            0      0.00%     73.04% # Type of FU issued
system.switch_cpus.iq.FU_type_0::IntDiv             0      0.00%     73.04% # Type of FU issued
system.switch_cpus.iq.FU_type_0::FloatAdd            0      0.00%     73.04% # Type of FU issued
system.switch_cpus.iq.FU_type_0::FloatCmp            0      0.00%     73.04% # Type of FU issued
system.switch_cpus.iq.FU_type_0::FloatCvt            0      0.00%     73.04% # Type of FU issued
system.switch_cpus.iq.FU_type_0::FloatMult            0      0.00%     73.04% # Type of FU issued
system.switch_cpus.iq.FU_type_0::FloatMultAcc            0      0.00%     73.04% # Type of FU issued
system.switch_cpus.iq.FU_type_0::FloatDiv            0      0.00%     73.04% # Type of FU issued
system.switch_cpus.iq.FU_type_0::FloatMisc            0      0.00%     73.04% # Type of FU issued
system.switch_cpus.iq.FU_type_0::FloatSqrt            0      0.00%     73.04% # Type of FU issued
system.switch_cpus.iq.FU_type_0::SimdAdd            0      0.00%     73.04% # Type of FU issued
system.switch_cpus.iq.FU_type_0::SimdAddAcc            0      0.00%     73.04% # Type of FU issued
system.switch_cpus.iq.FU_type_0::SimdAlu            0      0.00%     73.04% # Type of FU issued
system.switch_cpus.iq.FU_type_0::SimdCmp            0      0.00%     73.04% # Type of FU issued
system.switch_cpus.iq.FU_type_0::SimdCvt            0      0.00%     73.04% # Type of FU issued
system.switch_cpus.iq.FU_type_0::SimdMisc            0      0.00%     73.04% # Type of FU issued
system.switch_cpus.iq.FU_type_0::SimdMult            0      0.00%     73.04% # Type of FU issued
system.switch_cpus.iq.FU_type_0::SimdMultAcc            0      0.00%     73.04% # Type of FU issued
system.switch_cpus.iq.FU_type_0::SimdShift            0      0.00%     73.04% # Type of FU issued
system.switch_cpus.iq.FU_type_0::SimdShiftAcc            0      0.00%     73.04% # Type of FU issued
system.switch_cpus.iq.FU_type_0::SimdDiv            0      0.00%     73.04% # Type of FU issued
system.switch_cpus.iq.FU_type_0::SimdSqrt            0      0.00%     73.04% # Type of FU issued
system.switch_cpus.iq.FU_type_0::SimdFloatAdd            0      0.00%     73.04% # Type of FU issued
system.switch_cpus.iq.FU_type_0::SimdFloatAlu            0      0.00%     73.04% # Type of FU issued
system.switch_cpus.iq.FU_type_0::SimdFloatCmp            0      0.00%     73.04% # Type of FU issued
system.switch_cpus.iq.FU_type_0::SimdFloatCvt            0      0.00%     73.04% # Type of FU issued
system.switch_cpus.iq.FU_type_0::SimdFloatDiv            0      0.00%     73.04% # Type of FU issued
system.switch_cpus.iq.FU_type_0::SimdFloatMisc            0      0.00%     73.04% # Type of FU issued
system.switch_cpus.iq.FU_type_0::SimdFloatMult            0      0.00%     73.04% # Type of FU issued
system.switch_cpus.iq.FU_type_0::SimdFloatMultAcc            0      0.00%     73.04% # Type of FU issued
system.switch_cpus.iq.FU_type_0::SimdFloatSqrt            0      0.00%     73.04% # Type of FU issued
system.switch_cpus.iq.FU_type_0::SimdReduceAdd            0      0.00%     73.04% # Type of FU issued
system.switch_cpus.iq.FU_type_0::SimdReduceAlu            0      0.00%     73.04% # Type of FU issued
system.switch_cpus.iq.FU_type_0::SimdReduceCmp            0      0.00%     73.04% # Type of FU issued
system.switch_cpus.iq.FU_type_0::SimdFloatReduceAdd            0      0.00%     73.04% # Type of FU issued
system.switch_cpus.iq.FU_type_0::SimdFloatReduceCmp            0      0.00%     73.04% # Type of FU issued
system.switch_cpus.iq.FU_type_0::SimdAes            0      0.00%     73.04% # Type of FU issued
system.switch_cpus.iq.FU_type_0::SimdAesMix            0      0.00%     73.04% # Type of FU issued
system.switch_cpus.iq.FU_type_0::SimdSha1Hash            0      0.00%     73.04% # Type of FU issued
system.switch_cpus.iq.FU_type_0::SimdSha1Hash2            0      0.00%     73.04% # Type of FU issued
system.switch_cpus.iq.FU_type_0::SimdSha256Hash            0      0.00%     73.04% # Type of FU issued
system.switch_cpus.iq.FU_type_0::SimdSha256Hash2            0      0.00%     73.04% # Type of FU issued
system.switch_cpus.iq.FU_type_0::SimdShaSigma2            0      0.00%     73.04% # Type of FU issued
system.switch_cpus.iq.FU_type_0::SimdShaSigma3            0      0.00%     73.04% # Type of FU issued
system.switch_cpus.iq.FU_type_0::SimdPredAlu            0      0.00%     73.04% # Type of FU issued
system.switch_cpus.iq.FU_type_0::MemRead          121     21.04%     94.09% # Type of FU issued
system.switch_cpus.iq.FU_type_0::MemWrite           34      5.91%    100.00% # Type of FU issued
system.switch_cpus.iq.FU_type_0::FloatMemRead            0      0.00%    100.00% # Type of FU issued
system.switch_cpus.iq.FU_type_0::FloatMemWrite            0      0.00%    100.00% # Type of FU issued
system.switch_cpus.iq.FU_type_0::IprAccess            0      0.00%    100.00% # Type of FU issued
system.switch_cpus.iq.FU_type_0::InstPrefetch            0      0.00%    100.00% # Type of FU issued
system.switch_cpus.iq.FU_type_0::total            575                       # Type of FU issued
system.switch_cpus.iq.fp_alu_accesses               0                       # Number of floating point alu accesses
system.switch_cpus.iq.fp_inst_queue_reads            0                       # Number of floating instruction queue reads
system.switch_cpus.iq.fp_inst_queue_wakeup_accesses            0                       # Number of floating instruction queue wakeup accesses
system.switch_cpus.iq.fp_inst_queue_writes            0                       # Number of floating instruction queue writes
system.switch_cpus.iq.fu_busy_cnt                   5                       # FU busy when requested
system.switch_cpus.iq.fu_busy_rate           0.008696                       # FU busy rate (busy events/executed inst)
system.switch_cpus.iq.fu_full::No_OpClass            0      0.00%      0.00% # attempts to use FU when none available
system.switch_cpus.iq.fu_full::IntAlu               2     40.00%     40.00% # attempts to use FU when none available
system.switch_cpus.iq.fu_full::IntMult              0      0.00%     40.00% # attempts to use FU when none available
system.switch_cpus.iq.fu_full::IntDiv               0      0.00%     40.00% # attempts to use FU when none available
system.switch_cpus.iq.fu_full::FloatAdd             0      0.00%     40.00% # attempts to use FU when none available
system.switch_cpus.iq.fu_full::FloatCmp             0      0.00%     40.00% # attempts to use FU when none available
system.switch_cpus.iq.fu_full::FloatCvt             0      0.00%     40.00% # attempts to use FU when none available
system.switch_cpus.iq.fu_full::FloatMult            0      0.00%     40.00% # attempts to use FU when none available
system.switch_cpus.iq.fu_full::FloatMultAcc            0      0.00%     40.00% # attempts to use FU when none available
system.switch_cpus.iq.fu_full::FloatDiv             0      0.00%     40.00% # attempts to use FU when none available
system.switch_cpus.iq.fu_full::FloatMisc            0      0.00%     40.00% # attempts to use FU when none available
system.switch_cpus.iq.fu_full::FloatSqrt            0      0.00%     40.00% # attempts to use FU when none available
system.switch_cpus.iq.fu_full::SimdAdd              0      0.00%     40.00% # attempts to use FU when none available
system.switch_cpus.iq.fu_full::SimdAddAcc            0      0.00%     40.00% # attempts to use FU when none available
system.switch_cpus.iq.fu_full::SimdAlu              0      0.00%     40.00% # attempts to use FU when none available
system.switch_cpus.iq.fu_full::SimdCmp              0      0.00%     40.00% # attempts to use FU when none available
system.switch_cpus.iq.fu_full::SimdCvt              0      0.00%     40.00% # attempts to use FU when none available
system.switch_cpus.iq.fu_full::SimdMisc             0      0.00%     40.00% # attempts to use FU when none available
system.switch_cpus.iq.fu_full::SimdMult             0      0.00%     40.00% # attempts to use FU when none available
system.switch_cpus.iq.fu_full::SimdMultAcc            0      0.00%     40.00% # attempts to use FU when none available
system.switch_cpus.iq.fu_full::SimdShift            0      0.00%     40.00% # attempts to use FU when none available
system.switch_cpus.iq.fu_full::SimdShiftAcc            0      0.00%     40.00% # attempts to use FU when none available
system.switch_cpus.iq.fu_full::SimdDiv              0      0.00%     40.00% # attempts to use FU when none available
system.switch_cpus.iq.fu_full::SimdSqrt             0      0.00%     40.00% # attempts to use FU when none available
system.switch_cpus.iq.fu_full::SimdFloatAdd            0      0.00%     40.00% # attempts to use FU when none available
system.switch_cpus.iq.fu_full::SimdFloatAlu            0      0.00%     40.00% # attempts to use FU when none available
system.switch_cpus.iq.fu_full::SimdFloatCmp            0      0.00%     40.00% # attempts to use FU when none available
system.switch_cpus.iq.fu_full::SimdFloatCvt            0      0.00%     40.00% # attempts to use FU when none available
system.switch_cpus.iq.fu_full::SimdFloatDiv            0      0.00%     40.00% # attempts to use FU when none available
system.switch_cpus.iq.fu_full::SimdFloatMisc            0      0.00%     40.00% # attempts to use FU when none available
system.switch_cpus.iq.fu_full::SimdFloatMult            0      0.00%     40.00% # attempts to use FU when none available
system.switch_cpus.iq.fu_full::SimdFloatMultAcc            0      0.00%     40.00% # attempts to use FU when none available
system.switch_cpus.iq.fu_full::SimdFloatSqrt            0      0.00%     40.00% # attempts to use FU when none available
system.switch_cpus.iq.fu_full::SimdReduceAdd            0      0.00%     40.00% # attempts to use FU when none available
system.switch_cpus.iq.fu_full::SimdReduceAlu            0      0.00%     40.00% # attempts to use FU when none available
system.switch_cpus.iq.fu_full::SimdReduceCmp            0      0.00%     40.00% # attempts to use FU when none available
system.switch_cpus.iq.fu_full::SimdFloatReduceAdd            0      0.00%     40.00% # attempts to use FU when none available
system.switch_cpus.iq.fu_full::SimdFloatReduceCmp            0      0.00%     40.00% # attempts to use FU when none available
system.switch_cpus.iq.fu_full::SimdAes              0      0.00%     40.00% # attempts to use FU when none available
system.switch_cpus.iq.fu_full::SimdAesMix            0      0.00%     40.00% # attempts to use FU when none available
system.switch_cpus.iq.fu_full::SimdSha1Hash            0      0.00%     40.00% # attempts to use FU when none available
system.switch_cpus.iq.fu_full::SimdSha1Hash2            0      0.00%     40.00% # attempts to use FU when none available
system.switch_cpus.iq.fu_full::SimdSha256Hash            0      0.00%     40.00% # attempts to use FU when none available
system.switch_cpus.iq.fu_full::SimdSha256Hash2            0      0.00%     40.00% # attempts to use FU when none available
system.switch_cpus.iq.fu_full::SimdShaSigma2            0      0.00%     40.00% # attempts to use FU when none available
system.switch_cpus.iq.fu_full::SimdShaSigma3            0      0.00%     40.00% # attempts to use FU when none available
system.switch_cpus.iq.fu_full::SimdPredAlu            0      0.00%     40.00% # attempts to use FU when none available
system.switch_cpus.iq.fu_full::MemRead              0      0.00%     40.00% # attempts to use FU when none available
system.switch_cpus.iq.fu_full::MemWrite             3     60.00%    100.00% # attempts to use FU when none available
system.switch_cpus.iq.fu_full::FloatMemRead            0      0.00%    100.00% # attempts to use FU when none available
system.switch_cpus.iq.fu_full::FloatMemWrite            0      0.00%    100.00% # attempts to use FU when none available
system.switch_cpus.iq.fu_full::IprAccess            0      0.00%    100.00% # attempts to use FU when none available
system.switch_cpus.iq.fu_full::InstPrefetch            0      0.00%    100.00% # attempts to use FU when none available
system.switch_cpus.iq.int_alu_accesses            557                       # Number of integer alu accesses
system.switch_cpus.iq.int_inst_queue_reads         2063                       # Number of integer instruction queue reads
system.switch_cpus.iq.int_inst_queue_wakeup_accesses          488                       # Number of integer instruction queue wakeup accesses
system.switch_cpus.iq.int_inst_queue_writes         1247                       # Number of integer instruction queue writes
system.switch_cpus.iq.iqInstsAdded                727                       # Number of instructions added to the IQ (excludes non-spec)
system.switch_cpus.iq.iqInstsIssued               575                       # Number of instructions issued
system.switch_cpus.iq.iqSquashedInstsExamined          515                       # Number of squashed instructions iterated over during squash; mainly for profiling
system.switch_cpus.iq.iqSquashedInstsIssued            1                       # Number of squashed instructions issued
system.switch_cpus.iq.iqSquashedOperandsExamined          678                       # Number of squashed operands that are examined and possibly removed from graph
system.switch_cpus.iq.issued_per_cycle::samples          915                       # Number of insts issued each cycle
system.switch_cpus.iq.issued_per_cycle::mean     0.628415                       # Number of insts issued each cycle
system.switch_cpus.iq.issued_per_cycle::stdev     1.564675                       # Number of insts issued each cycle
system.switch_cpus.iq.issued_per_cycle::underflows            0      0.00%      0.00% # Number of insts issued each cycle
system.switch_cpus.iq.issued_per_cycle::0          727     79.45%     79.45% # Number of insts issued each cycle
system.switch_cpus.iq.issued_per_cycle::1           74      8.09%     87.54% # Number of insts issued each cycle
system.switch_cpus.iq.issued_per_cycle::2           16      1.75%     89.29% # Number of insts issued each cycle
system.switch_cpus.iq.issued_per_cycle::3           23      2.51%     91.80% # Number of insts issued each cycle
system.switch_cpus.iq.issued_per_cycle::4           26      2.84%     94.64% # Number of insts issued each cycle
system.switch_cpus.iq.issued_per_cycle::5           18      1.97%     96.61% # Number of insts issued each cycle
system.switch_cpus.iq.issued_per_cycle::6           17      1.86%     98.47% # Number of insts issued each cycle
system.switch_cpus.iq.issued_per_cycle::7            8      0.87%     99.34% # Number of insts issued each cycle
system.switch_cpus.iq.issued_per_cycle::8            6      0.66%    100.00% # Number of insts issued each cycle
system.switch_cpus.iq.issued_per_cycle::overflows            0      0.00%    100.00% # Number of insts issued each cycle
system.switch_cpus.iq.issued_per_cycle::min_value            0                       # Number of insts issued each cycle
system.switch_cpus.iq.issued_per_cycle::max_value            8                       # Number of insts issued each cycle
system.switch_cpus.iq.issued_per_cycle::total          915                       # Number of insts issued each cycle
system.switch_cpus.iq.rate                   0.358926                       # Inst issue rate
system.switch_cpus.iq.vec_alu_accesses              0                       # Number of vector alu accesses
system.switch_cpus.iq.vec_inst_queue_reads            0                       # Number of vector instruction queue reads
system.switch_cpus.iq.vec_inst_queue_wakeup_accesses            0                       # Number of vector instruction queue wakeup accesses
system.switch_cpus.iq.vec_inst_queue_writes            0                       # Number of vector instruction queue writes
system.switch_cpus.itb.rdAccesses                   0                       # TLB accesses on read requests
system.switch_cpus.itb.rdMisses                     0                       # TLB misses on read requests
system.switch_cpus.itb.wrAccesses                  75                       # TLB accesses on write requests
system.switch_cpus.itb.wrMisses                    28                       # TLB misses on write requests
system.switch_cpus.memDep0.conflictingLoads            3                       # Number of conflicting loads.
system.switch_cpus.memDep0.conflictingStores            2                       # Number of conflicting stores.
system.switch_cpus.memDep0.insertedLoads          141                       # Number of loads inserted to the mem dependence unit.
system.switch_cpus.memDep0.insertedStores           48                       # Number of stores inserted to the mem dependence unit.
system.switch_cpus.misc_regfile_reads             230                       # number of misc regfile reads
system.switch_cpus.misc_regfile_writes              1                       # number of misc regfile writes
system.switch_cpus.numCycles                     1602                       # number of cpu cycles simulated
system.switch_cpus.numWorkItemsCompleted            0                       # number of work items this cpu completed
system.switch_cpus.numWorkItemsStarted              0                       # number of work items this cpu started
system.switch_cpus.rename.BlockCycles             168                       # Number of cycles rename is blocking
system.switch_cpus.rename.CommittedMaps           201                       # Number of HB maps that are committed
system.switch_cpus.rename.IQFullEvents             11                       # Number of times rename has blocked due to IQ full
system.switch_cpus.rename.IdleCycles              573                       # Number of cycles rename is idle
system.switch_cpus.rename.RenameLookups          2078                       # Number of register rename lookups that rename has made
system.switch_cpus.rename.RenamedInsts            795                       # Number of instructions processed by rename
system.switch_cpus.rename.RenamedOperands          867                       # Number of destination operands rename has renamed
system.switch_cpus.rename.RunCycles               116                       # Number of cycles rename is running
system.switch_cpus.rename.SquashCycles             38                       # Number of cycles rename is squashing
system.switch_cpus.rename.UnblockCycles            13                       # Number of cycles rename is unblocking
system.switch_cpus.rename.UndoneMaps              597                       # Number of HB maps that are undone due to squashing
system.switch_cpus.rename.int_rename_lookups         1339                       # Number of integer rename lookups
system.switch_cpus.rename.serializeStallCycles            0                       # count of cycles rename stalled for serializing inst
system.switch_cpus.rename.serializingInsts            0                       # count of serializing insts renamed
system.switch_cpus.rename.skidInsts                44                       # count of insts added to the skid buffer
system.switch_cpus.rename.tempSerializingInsts            0                       # count of temporary serializing insts renamed
system.switch_cpus.rob.rob_reads                 1474                       # The number of ROB reads
system.switch_cpus.rob.rob_writes                1535                       # The number of ROB writes
system.switch_cpus.timesIdled                       7                       # Number of times that the entire CPU went into an idle state and unscheduled itself
system.tol2bus.snoop_filter.hit_multi_requests            0                       # Number of requests hitting in the snoop filter with multiple (>1) holders of the requested data.
system.tol2bus.snoop_filter.hit_multi_snoops            0                       # Number of snoops hitting in the snoop filter with multiple (>1) holders of the requested data.
system.tol2bus.snoop_filter.hit_single_requests            0                       # Number of requests hitting in the snoop filter with a single holder of the requested data.
system.tol2bus.snoop_filter.hit_single_snoops            0                       # Number of snoops hitting in the snoop filter with a single holder of the requested data.
system.tol2bus.snoop_filter.tot_requests           23                       # Total number of requests made to the snoop filter.
system.tol2bus.snoop_filter.tot_snoops              0                       # Total number of snoops made to the snoop filter.
system.membus.pwrStateResidencyTicks::UNDEFINED 10604568173000                       # Cumulative time (in ticks) in various power states
system.membus.trans_dist::ReadResp                 22                       # Transaction distribution
system.membus.trans_dist::ReadExReq                 1                       # Transaction distribution
system.membus.trans_dist::ReadExResp                1                       # Transaction distribution
system.membus.trans_dist::ReadSharedReq            22                       # Transaction distribution
system.membus.pkt_count_system.l2.mem_side::system.mem_ctrls.port           46                       # Packet count per connected master and slave (bytes)
system.membus.pkt_count_system.l2.mem_side::total           46                       # Packet count per connected master and slave (bytes)
system.membus.pkt_count::total                     46                       # Packet count per connected master and slave (bytes)
system.membus.pkt_size_system.l2.mem_side::system.mem_ctrls.port         1472                       # Cumulative packet size per connected master and slave (bytes)
system.membus.pkt_size_system.l2.mem_side::total         1472                       # Cumulative packet size per connected master and slave (bytes)
system.membus.pkt_size::total                    1472                       # Cumulative packet size per connected master and slave (bytes)
system.membus.snoops                                0                       # Total snoops (count)
system.membus.snoopTraffic                          0                       # Total snoop traffic (bytes)
system.membus.snoop_fanout::samples                23                       # Request fanout histogram
system.membus.snoop_fanout::mean                    0                       # Request fanout histogram
system.membus.snoop_fanout::stdev                   0                       # Request fanout histogram
system.membus.snoop_fanout::underflows              0      0.00%      0.00% # Request fanout histogram
system.membus.snoop_fanout::0                      23    100.00%    100.00% # Request fanout histogram
system.membus.snoop_fanout::1                       0      0.00%    100.00% # Request fanout histogram
system.membus.snoop_fanout::overflows               0      0.00%    100.00% # Request fanout histogram
system.membus.snoop_fanout::min_value               0                       # Request fanout histogram
system.membus.snoop_fanout::max_value               0                       # Request fanout histogram
system.membus.snoop_fanout::total                  23                       # Request fanout histogram
system.membus.reqLayer2.occupancy               24000                       # Layer occupancy (ticks)
system.membus.reqLayer2.utilization               3.0                       # Layer utilization (%)
system.membus.respLayer1.occupancy              97890                       # Layer occupancy (ticks)
system.membus.respLayer1.utilization             12.1                       # Layer utilization (%)
system.switch_cpus.pwrStateResidencyTicks::OFF       811000                       # Cumulative time (in ticks) in various power states
system.switch_cpus.dtb.walker.pwrStateResidencyTicks::UNDEFINED 10604568173000                       # Cumulative time (in ticks) in various power states
system.switch_cpus.itb.walker.pwrStateResidencyTicks::UNDEFINED 10604568173000                       # Cumulative time (in ticks) in various power states
system.tol2bus.pwrStateResidencyTicks::UNDEFINED 10604568173000                       # Cumulative time (in ticks) in various power states
system.tol2bus.trans_dist::ReadResp                22                       # Transaction distribution
system.tol2bus.trans_dist::ReadExReq                1                       # Transaction distribution
system.tol2bus.trans_dist::ReadExResp               1                       # Transaction distribution
system.tol2bus.trans_dist::ReadCleanReq            10                       # Transaction distribution
system.tol2bus.trans_dist::ReadSharedReq           12                       # Transaction distribution
system.tol2bus.pkt_count_system.cpu.icache.mem_side::system.l2.cpu_side           20                       # Packet count per connected master and slave (bytes)
system.tol2bus.pkt_count_system.cpu.dcache.mem_side::system.l2.cpu_side           26                       # Packet count per connected master and slave (bytes)
system.tol2bus.pkt_count::total                    46                       # Packet count per connected master and slave (bytes)
system.tol2bus.pkt_size_system.cpu.icache.mem_side::system.l2.cpu_side          640                       # Cumulative packet size per connected master and slave (bytes)
system.tol2bus.pkt_size_system.cpu.dcache.mem_side::system.l2.cpu_side          832                       # Cumulative packet size per connected master and slave (bytes)
system.tol2bus.pkt_size::total                   1472                       # Cumulative packet size per connected master and slave (bytes)
system.tol2bus.snoops                               0                       # Total snoops (count)
system.tol2bus.snoopTraffic                         0                       # Total snoop traffic (bytes)
system.tol2bus.snoop_fanout::samples               23                       # Request fanout histogram
system.tol2bus.snoop_fanout::mean                   0                       # Request fanout histogram
system.tol2bus.snoop_fanout::stdev                  0                       # Request fanout histogram
system.tol2bus.snoop_fanout::underflows             0      0.00%      0.00% # Request fanout histogram
system.tol2bus.snoop_fanout::0                     23    100.00%    100.00% # Request fanout histogram
system.tol2bus.snoop_fanout::1                      0      0.00%    100.00% # Request fanout histogram
system.tol2bus.snoop_fanout::2                      0      0.00%    100.00% # Request fanout histogram
system.tol2bus.snoop_fanout::3                      0      0.00%    100.00% # Request fanout histogram
system.tol2bus.snoop_fanout::4                      0      0.00%    100.00% # Request fanout histogram
system.tol2bus.snoop_fanout::overflows              0      0.00%    100.00% # Request fanout histogram
system.tol2bus.snoop_fanout::min_value              0                       # Request fanout histogram
system.tol2bus.snoop_fanout::max_value              0                       # Request fanout histogram
system.tol2bus.snoop_fanout::total                 23                       # Request fanout histogram
system.tol2bus.reqLayer0.occupancy               9500                       # Layer occupancy (ticks)
system.tol2bus.reqLayer0.utilization              1.2                       # Layer utilization (%)
system.tol2bus.respLayer1.occupancy             18000                       # Layer occupancy (ticks)
system.tol2bus.respLayer1.utilization             2.2                       # Layer utilization (%)
system.tol2bus.respLayer0.occupancy             10500                       # Layer occupancy (ticks)
system.tol2bus.respLayer0.utilization             1.3                       # Layer utilization (%)
system.voltage_domain.voltage                       1                       # Voltage in Volts
system.clk_domain.clock                          1000                       # Clock period in ticks
system.l2.pwrStateResidencyTicks::UNDEFINED 10604568173000                       # Cumulative time (in ticks) in various power states
system.l2.demand_misses::.cpu.inst                  3                       # number of demand (read+write) misses
system.l2.demand_misses::.cpu.data                  1                       # number of demand (read+write) misses
system.l2.demand_misses::.switch_cpus.inst            7                       # number of demand (read+write) misses
system.l2.demand_misses::.switch_cpus.data           12                       # number of demand (read+write) misses
system.l2.demand_misses::total                     23                       # number of demand (read+write) misses
system.l2.overall_misses::.cpu.inst                 3                       # number of overall misses
system.l2.overall_misses::.cpu.data                 1                       # number of overall misses
system.l2.overall_misses::.switch_cpus.inst            7                       # number of overall misses
system.l2.overall_misses::.switch_cpus.data           12                       # number of overall misses
system.l2.overall_misses::total                    23                       # number of overall misses
system.l2.demand_miss_latency::.switch_cpus.inst       489000                       # number of demand (read+write) miss cycles
system.l2.demand_miss_latency::.switch_cpus.data       954500                       # number of demand (read+write) miss cycles
system.l2.demand_miss_latency::total          1443500                       # number of demand (read+write) miss cycles
system.l2.overall_miss_latency::.switch_cpus.inst       489000                       # number of overall miss cycles
system.l2.overall_miss_latency::.switch_cpus.data       954500                       # number of overall miss cycles
system.l2.overall_miss_latency::total         1443500                       # number of overall miss cycles
system.l2.demand_accesses::.cpu.inst                3                       # number of demand (read+write) accesses
system.l2.demand_accesses::.cpu.data                1                       # number of demand (read+write) accesses
system.l2.demand_accesses::.switch_cpus.inst            7                       # number of demand (read+write) accesses
system.l2.demand_accesses::.switch_cpus.data           12                       # number of demand (read+write) accesses
system.l2.demand_accesses::total                   23                       # number of demand (read+write) accesses
system.l2.overall_accesses::.cpu.inst               3                       # number of overall (read+write) accesses
system.l2.overall_accesses::.cpu.data               1                       # number of overall (read+write) accesses
system.l2.overall_accesses::.switch_cpus.inst            7                       # number of overall (read+write) accesses
system.l2.overall_accesses::.switch_cpus.data           12                       # number of overall (read+write) accesses
system.l2.overall_accesses::total                  23                       # number of overall (read+write) accesses
system.l2.demand_miss_rate::.cpu.inst               1                       # miss rate for demand accesses
system.l2.demand_miss_rate::.cpu.data               1                       # miss rate for demand accesses
system.l2.demand_miss_rate::.switch_cpus.inst            1                       # miss rate for demand accesses
system.l2.demand_miss_rate::.switch_cpus.data            1                       # miss rate for demand accesses
system.l2.demand_miss_rate::total                   1                       # miss rate for demand accesses
system.l2.overall_miss_rate::.cpu.inst              1                       # miss rate for overall accesses
system.l2.overall_miss_rate::.cpu.data              1                       # miss rate for overall accesses
system.l2.overall_miss_rate::.switch_cpus.inst            1                       # miss rate for overall accesses
system.l2.overall_miss_rate::.switch_cpus.data            1                       # miss rate for overall accesses
system.l2.overall_miss_rate::total                  1                       # miss rate for overall accesses
system.l2.demand_avg_miss_latency::.switch_cpus.inst 69857.142857                       # average overall miss latency
system.l2.demand_avg_miss_latency::.switch_cpus.data 79541.666667                       # average overall miss latency
system.l2.demand_avg_miss_latency::total 62760.869565                       # average overall miss latency
system.l2.overall_avg_miss_latency::.switch_cpus.inst 69857.142857                       # average overall miss latency
system.l2.overall_avg_miss_latency::.switch_cpus.data 79541.666667                       # average overall miss latency
system.l2.overall_avg_miss_latency::total 62760.869565                       # average overall miss latency
system.l2.blocked_cycles::no_mshrs                  0                       # number of cycles access was blocked
system.l2.blocked_cycles::no_targets                0                       # number of cycles access was blocked
system.l2.blocked::no_mshrs                         0                       # number of cycles access was blocked
system.l2.blocked::no_targets                       0                       # number of cycles access was blocked
system.l2.avg_blocked_cycles::no_mshrs            nan                       # average number of cycles each access was blocked
system.l2.avg_blocked_cycles::no_targets          nan                       # average number of cycles each access was blocked
system.l2.demand_mshr_misses::.switch_cpus.inst            7                       # number of demand (read+write) MSHR misses
system.l2.demand_mshr_misses::.switch_cpus.data           12                       # number of demand (read+write) MSHR misses
system.l2.demand_mshr_misses::total                19                       # number of demand (read+write) MSHR misses
system.l2.overall_mshr_misses::.switch_cpus.inst            7                       # number of overall MSHR misses
system.l2.overall_mshr_misses::.switch_cpus.data           12                       # number of overall MSHR misses
system.l2.overall_mshr_misses::total               19                       # number of overall MSHR misses
system.l2.demand_mshr_miss_latency::.switch_cpus.inst       419000                       # number of demand (read+write) MSHR miss cycles
system.l2.demand_mshr_miss_latency::.switch_cpus.data       834500                       # number of demand (read+write) MSHR miss cycles
system.l2.demand_mshr_miss_latency::total      1253500                       # number of demand (read+write) MSHR miss cycles
system.l2.overall_mshr_miss_latency::.switch_cpus.inst       419000                       # number of overall MSHR miss cycles
system.l2.overall_mshr_miss_latency::.switch_cpus.data       834500                       # number of overall MSHR miss cycles
system.l2.overall_mshr_miss_latency::total      1253500                       # number of overall MSHR miss cycles
system.l2.demand_mshr_miss_rate::.switch_cpus.inst            1                       # mshr miss rate for demand accesses
system.l2.demand_mshr_miss_rate::.switch_cpus.data            1                       # mshr miss rate for demand accesses
system.l2.demand_mshr_miss_rate::total       0.826087                       # mshr miss rate for demand accesses
system.l2.overall_mshr_miss_rate::.switch_cpus.inst            1                       # mshr miss rate for overall accesses
system.l2.overall_mshr_miss_rate::.switch_cpus.data            1                       # mshr miss rate for overall accesses
system.l2.overall_mshr_miss_rate::total      0.826087                       # mshr miss rate for overall accesses
system.l2.demand_avg_mshr_miss_latency::.switch_cpus.inst 59857.142857                       # average overall mshr miss latency
system.l2.demand_avg_mshr_miss_latency::.switch_cpus.data 69541.666667                       # average overall mshr miss latency
system.l2.demand_avg_mshr_miss_latency::total 65973.684211                       # average overall mshr miss latency
system.l2.overall_avg_mshr_miss_latency::.switch_cpus.inst 59857.142857                       # average overall mshr miss latency
system.l2.overall_avg_mshr_miss_latency::.switch_cpus.data 69541.666667                       # average overall mshr miss latency
system.l2.overall_avg_mshr_miss_latency::total 65973.684211                       # average overall mshr miss latency
system.l2.replacements                              0                       # number of replacements
system.l2.csize                                     0                       # Cache sizes in total
system.l2.ReadExReq_misses::.switch_cpus.data            1                       # number of ReadExReq misses
system.l2.ReadExReq_misses::total                   1                       # number of ReadExReq misses
system.l2.ReadExReq_miss_latency::.switch_cpus.data        80500                       # number of ReadExReq miss cycles
system.l2.ReadExReq_miss_latency::total         80500                       # number of ReadExReq miss cycles
system.l2.ReadExReq_accesses::.switch_cpus.data            1                       # number of ReadExReq accesses(hits+misses)
system.l2.ReadExReq_accesses::total                 1                       # number of ReadExReq accesses(hits+misses)
system.l2.ReadExReq_miss_rate::.switch_cpus.data            1                       # miss rate for ReadExReq accesses
system.l2.ReadExReq_miss_rate::total                1                       # miss rate for ReadExReq accesses
system.l2.ReadExReq_avg_miss_latency::.switch_cpus.data        80500                       # average ReadExReq miss latency
system.l2.ReadExReq_avg_miss_latency::total        80500                       # average ReadExReq miss latency
system.l2.ReadExReq_mshr_misses::.switch_cpus.data            1                       # number of ReadExReq MSHR misses
system.l2.ReadExReq_mshr_misses::total              1                       # number of ReadExReq MSHR misses
system.l2.ReadExReq_mshr_miss_latency::.switch_cpus.data        70500                       # number of ReadExReq MSHR miss cycles
system.l2.ReadExReq_mshr_miss_latency::total        70500                       # number of ReadExReq MSHR miss cycles
system.l2.ReadExReq_mshr_miss_rate::.switch_cpus.data            1                       # mshr miss rate for ReadExReq accesses
system.l2.ReadExReq_mshr_miss_rate::total            1                       # mshr miss rate for ReadExReq accesses
system.l2.ReadExReq_avg_mshr_miss_latency::.switch_cpus.data        70500                       # average ReadExReq mshr miss latency
system.l2.ReadExReq_avg_mshr_miss_latency::total        70500                       # average ReadExReq mshr miss latency
system.l2.ReadCleanReq_misses::.cpu.inst            3                       # number of ReadCleanReq misses
system.l2.ReadCleanReq_misses::.switch_cpus.inst            7                       # number of ReadCleanReq misses
system.l2.ReadCleanReq_misses::total               10                       # number of ReadCleanReq misses
system.l2.ReadCleanReq_miss_latency::.switch_cpus.inst       489000                       # number of ReadCleanReq miss cycles
system.l2.ReadCleanReq_miss_latency::total       489000                       # number of ReadCleanReq miss cycles
system.l2.ReadCleanReq_accesses::.cpu.inst            3                       # number of ReadCleanReq accesses(hits+misses)
system.l2.ReadCleanReq_accesses::.switch_cpus.inst            7                       # number of ReadCleanReq accesses(hits+misses)
system.l2.ReadCleanReq_accesses::total             10                       # number of ReadCleanReq accesses(hits+misses)
system.l2.ReadCleanReq_miss_rate::.cpu.inst            1                       # miss rate for ReadCleanReq accesses
system.l2.ReadCleanReq_miss_rate::.switch_cpus.inst            1                       # miss rate for ReadCleanReq accesses
system.l2.ReadCleanReq_miss_rate::total             1                       # miss rate for ReadCleanReq accesses
system.l2.ReadCleanReq_avg_miss_latency::.switch_cpus.inst 69857.142857                       # average ReadCleanReq miss latency
system.l2.ReadCleanReq_avg_miss_latency::total        48900                       # average ReadCleanReq miss latency
system.l2.ReadCleanReq_mshr_misses::.switch_cpus.inst            7                       # number of ReadCleanReq MSHR misses
system.l2.ReadCleanReq_mshr_misses::total            7                       # number of ReadCleanReq MSHR misses
system.l2.ReadCleanReq_mshr_miss_latency::.switch_cpus.inst       419000                       # number of ReadCleanReq MSHR miss cycles
system.l2.ReadCleanReq_mshr_miss_latency::total       419000                       # number of ReadCleanReq MSHR miss cycles
system.l2.ReadCleanReq_mshr_miss_rate::.switch_cpus.inst            1                       # mshr miss rate for ReadCleanReq accesses
system.l2.ReadCleanReq_mshr_miss_rate::total     0.700000                       # mshr miss rate for ReadCleanReq accesses
system.l2.ReadCleanReq_avg_mshr_miss_latency::.switch_cpus.inst 59857.142857                       # average ReadCleanReq mshr miss latency
system.l2.ReadCleanReq_avg_mshr_miss_latency::total 59857.142857                       # average ReadCleanReq mshr miss latency
system.l2.ReadSharedReq_misses::.cpu.data            1                       # number of ReadSharedReq misses
system.l2.ReadSharedReq_misses::.switch_cpus.data           11                       # number of ReadSharedReq misses
system.l2.ReadSharedReq_misses::total              12                       # number of ReadSharedReq misses
system.l2.ReadSharedReq_miss_latency::.switch_cpus.data       874000                       # number of ReadSharedReq miss cycles
system.l2.ReadSharedReq_miss_latency::total       874000                       # number of ReadSharedReq miss cycles
system.l2.ReadSharedReq_accesses::.cpu.data            1                       # number of ReadSharedReq accesses(hits+misses)
system.l2.ReadSharedReq_accesses::.switch_cpus.data           11                       # number of ReadSharedReq accesses(hits+misses)
system.l2.ReadSharedReq_accesses::total            12                       # number of ReadSharedReq accesses(hits+misses)
system.l2.ReadSharedReq_miss_rate::.cpu.data            1                       # miss rate for ReadSharedReq accesses
system.l2.ReadSharedReq_miss_rate::.switch_cpus.data            1                       # miss rate for ReadSharedReq accesses
system.l2.ReadSharedReq_miss_rate::total            1                       # miss rate for ReadSharedReq accesses
system.l2.ReadSharedReq_avg_miss_latency::.switch_cpus.data 79454.545455                       # average ReadSharedReq miss latency
system.l2.ReadSharedReq_avg_miss_latency::total 72833.333333                       # average ReadSharedReq miss latency
system.l2.ReadSharedReq_mshr_misses::.switch_cpus.data           11                       # number of ReadSharedReq MSHR misses
system.l2.ReadSharedReq_mshr_misses::total           11                       # number of ReadSharedReq MSHR misses
system.l2.ReadSharedReq_mshr_miss_latency::.switch_cpus.data       764000                       # number of ReadSharedReq MSHR miss cycles
system.l2.ReadSharedReq_mshr_miss_latency::total       764000                       # number of ReadSharedReq MSHR miss cycles
[...]
system.cpu.icache.tags.age_task_id_blocks_1024::0           10                       # Occupied blocks per task id
system.cpu.icache.tags.occ_task_id_percent::1024     0.019531                       # Percentage of cache occupancy per task id
system.cpu.icache.tags.tag_accesses               134                       # Number of tag accesses
system.cpu.icache.tags.data_accesses              134                       # Number of data accesses
system.cpu.dtb.walker.pwrStateResidencyTicks::UNDEFINED 10604568173000                       # Cumulative time (in ticks) in various power states
system.cpu.interrupts.clk_domain.clock           8000                       # Clock period in ticks
system.cpu.itb_walker_cache.pwrStateResidencyTicks::UNDEFINED 10604568173000                       # Cumulative time (in ticks) in various power states
system.cpu.itb_walker_cache.blocked_cycles::no_mshrs            0                       # number of cycles access was blocked
system.cpu.itb_walker_cache.blocked_cycles::no_targets            0                       # number of cycles access was blocked
system.cpu.itb_walker_cache.blocked::no_mshrs            0                       # number of cycles access was blocked
system.cpu.itb_walker_cache.blocked::no_targets            0                       # number of cycles access was blocked
system.cpu.itb_walker_cache.avg_blocked_cycles::no_mshrs          nan                       # average number of cycles each access was blocked
system.cpu.itb_walker_cache.avg_blocked_cycles::no_targets          nan                       # average number of cycles each access was blocked
system.cpu.itb_walker_cache.replacements            0                       # number of replacements
system.cpu.itb_walker_cache.csize                   0                       # Cache sizes in total
system.cpu.itb_walker_cache.tags.pwrStateResidencyTicks::UNDEFINED 10604568173000                       # Cumulative time (in ticks) in various power states
system.cpu.itb_walker_cache.tags.tagsinuse            0                       # Cycle average of tags in use
system.cpu.itb_walker_cache.tags.total_refs            0                       # Total number of references to valid blocks.
system.cpu.itb_walker_cache.tags.sampled_refs            0                       # Sample count of references to valid blocks.
system.cpu.itb_walker_cache.tags.avg_refs          nan                       # Average number of references to valid blocks.
system.cpu.itb_walker_cache.tags.warmup_cycle            0                       # Cycle when the warmup percentage was hit.
system.cpu.itb_walker_cache.tags.tag_accesses            0                       # Number of tag accesses
system.cpu.itb_walker_cache.tags.data_accesses            0                       # Number of data accesses
system.cpu.itb.walker.pwrStateResidencyTicks::UNDEFINED 10604568173000                       # Cumulative time (in ticks) in various power states
system.cpu.dtb_walker_cache.pwrStateResidencyTicks::UNDEFINED 10604568173000                       # Cumulative time (in ticks) in various power states
system.cpu.dtb_walker_cache.blocked_cycles::no_mshrs            0                       # number of cycles access was blocked
system.cpu.dtb_walker_cache.blocked_cycles::no_targets            0                       # number of cycles access was blocked
system.cpu.dtb_walker_cache.blocked::no_mshrs            0                       # number of cycles access was blocked
system.cpu.dtb_walker_cache.blocked::no_targets            0                       # number of cycles access was blocked
system.cpu.dtb_walker_cache.avg_blocked_cycles::no_mshrs          nan                       # average number of cycles each access was blocked
system.cpu.dtb_walker_cache.avg_blocked_cycles::no_targets          nan                       # average number of cycles each access was blocked
system.cpu.dtb_walker_cache.replacements            0                       # number of replacements
system.cpu.dtb_walker_cache.csize                   0                       # Cache sizes in total
system.cpu.dtb_walker_cache.tags.pwrStateResidencyTicks::UNDEFINED 10604568173000                       # Cumulative time (in ticks) in various power states
system.cpu.dtb_walker_cache.tags.tagsinuse            0                       # Cycle average of tags in use
system.cpu.dtb_walker_cache.tags.total_refs            0                       # Total number of references to valid blocks.
system.cpu.dtb_walker_cache.tags.sampled_refs            0                       # Sample count of references to valid blocks.
system.cpu.dtb_walker_cache.tags.avg_refs          nan                       # Average number of references to valid blocks.
system.cpu.dtb_walker_cache.tags.warmup_cycle            0                       # Cycle when the warmup percentage was hit.
system.cpu.dtb_walker_cache.tags.tag_accesses            0                       # Number of tag accesses
system.cpu.dtb_walker_cache.tags.data_accesses            0                       # Number of data accesses
system.cpu.dcache.pwrStateResidencyTicks::UNDEFINED 10604568173000                       # Cumulative time (in ticks) in various power states
system.cpu.dcache.demand_hits::.cpu.data            1                       # number of demand (read+write) hits
system.cpu.dcache.demand_hits::.switch_cpus.data           86                       # number of demand (read+write) hits
system.cpu.dcache.demand_hits::total               87                       # number of demand (read+write) hits
system.cpu.dcache.overall_hits::.cpu.data            1                       # number of overall hits
system.cpu.dcache.overall_hits::.switch_cpus.data           86                       # number of overall hits
system.cpu.dcache.overall_hits::total              87                       # number of overall hits
system.cpu.dcache.demand_misses::.cpu.data            1                       # number of demand (read+write) misses
system.cpu.dcache.demand_misses::.switch_cpus.data           31                       # number of demand (read+write) misses
system.cpu.dcache.demand_misses::total             32                       # number of demand (read+write) misses
system.cpu.dcache.overall_misses::.cpu.data            1                       # number of overall misses
system.cpu.dcache.overall_misses::.switch_cpus.data           31                       # number of overall misses
system.cpu.dcache.overall_misses::total            32                       # number of overall misses
system.cpu.dcache.demand_miss_latency::.switch_cpus.data      2100000                       # number of demand (read+write) miss cycles
system.cpu.dcache.demand_miss_latency::total      2100000                       # number of demand (read+write) miss cycles
system.cpu.dcache.overall_miss_latency::.switch_cpus.data      2100000                       # number of overall miss cycles
system.cpu.dcache.overall_miss_latency::total      2100000                       # number of overall miss cycles
system.cpu.dcache.demand_accesses::.cpu.data            2                       # number of demand (read+write) accesses
system.cpu.dcache.demand_accesses::.switch_cpus.data          117                       # number of demand (read+write) accesses
system.cpu.dcache.demand_accesses::total          119                       # number of demand (read+write) accesses
system.cpu.dcache.overall_accesses::.cpu.data            2                       # number of overall (read+write) accesses
system.cpu.dcache.overall_accesses::.switch_cpus.data          117                       # number of overall (read+write) accesses
system.cpu.dcache.overall_accesses::total          119                       # number of overall (read+write) accesses
system.cpu.dcache.demand_miss_rate::.cpu.data     0.500000                       # miss rate for demand accesses
system.cpu.dcache.demand_miss_rate::.switch_cpus.data     0.264957                       # miss rate for demand accesses
system.cpu.dcache.demand_miss_rate::total     0.268908                       # miss rate for demand accesses
system.cpu.dcache.overall_miss_rate::.cpu.data     0.500000                       # miss rate for overall accesses
system.cpu.dcache.overall_miss_rate::.switch_cpus.data     0.264957                       # miss rate for overall accesses
system.cpu.dcache.overall_miss_rate::total     0.268908                       # miss rate for overall accesses
system.cpu.dcache.demand_avg_miss_latency::.switch_cpus.data 67741.935484                       # average overall miss latency
system.cpu.dcache.demand_avg_miss_latency::total        65625                       # average overall miss latency
system.cpu.dcache.overall_avg_miss_latency::.switch_cpus.data 67741.935484                       # average overall miss latency
system.cpu.dcache.overall_avg_miss_latency::total        65625                       # average overall miss latency
system.cpu.dcache.blocked_cycles::no_mshrs            0                       # number of cycles access was blocked
system.cpu.dcache.blocked_cycles::no_targets            0                       # number of cycles access was blocked
system.cpu.dcache.blocked::no_mshrs                 0                       # number of cycles access was blocked
system.cpu.dcache.blocked::no_targets               0                       # number of cycles access was blocked
system.cpu.dcache.avg_blocked_cycles::no_mshrs          nan                       # average number of cycles each access was blocked
system.cpu.dcache.avg_blocked_cycles::no_targets          nan                       # average number of cycles each access was blocked
system.cpu.dcache.demand_mshr_hits::.switch_cpus.data           19                       # number of demand (read+write) MSHR hits
system.cpu.dcache.demand_mshr_hits::total           19                       # number of demand (read+write) MSHR hits
system.cpu.dcache.overall_mshr_hits::.switch_cpus.data           19                       # number of overall MSHR hits
system.cpu.dcache.overall_mshr_hits::total           19                       # number of overall MSHR hits
system.cpu.dcache.demand_mshr_misses::.switch_cpus.data           12                       # number of demand (read+write) MSHR misses
system.cpu.dcache.demand_mshr_misses::total           12                       # number of demand (read+write) MSHR misses
system.cpu.dcache.overall_mshr_misses::.switch_cpus.data           12                       # number of overall MSHR misses
system.cpu.dcache.overall_mshr_misses::total           12                       # number of overall MSHR misses
system.cpu.dcache.demand_mshr_miss_latency::.switch_cpus.data       973500                       # number of demand (read+write) MSHR miss cycles
system.cpu.dcache.demand_mshr_miss_latency::total       973500                       # number of demand (read+write) MSHR miss cycles
system.cpu.dcache.overall_mshr_miss_latency::.switch_cpus.data       973500                       # number of overall MSHR miss cycles
system.cpu.dcache.overall_mshr_miss_latency::total       973500                       # number of overall MSHR miss cycles
system.cpu.dcache.demand_mshr_miss_rate::.switch_cpus.data     0.102564                       # mshr miss rate for demand accesses
system.cpu.dcache.demand_mshr_miss_rate::total     0.100840                       # mshr miss rate for demand accesses
system.cpu.dcache.overall_mshr_miss_rate::.switch_cpus.data     0.102564                       # mshr miss rate for overall accesses
system.cpu.dcache.overall_mshr_miss_rate::total     0.100840                       # mshr miss rate for overall accesses
system.cpu.dcache.demand_avg_mshr_miss_latency::.switch_cpus.data        81125                       # average overall mshr miss latency
system.cpu.dcache.demand_avg_mshr_miss_latency::total        81125                       # average overall mshr miss latency
system.cpu.dcache.overall_avg_mshr_miss_latency::.switch_cpus.data        81125                       # average overall mshr miss latency
system.cpu.dcache.overall_avg_mshr_miss_latency::total        81125                       # average overall mshr miss latency
system.cpu.dcache.replacements                      0                       # number of replacements
system.cpu.dcache.csize                           508                       # Cache sizes in total
system.cpu.dcache.ReadReq_hits::.cpu.data            1                       # number of ReadReq hits
system.cpu.dcache.ReadReq_hits::.switch_cpus.data           81                       # number of ReadReq hits
system.cpu.dcache.ReadReq_hits::total              82                       # number of ReadReq hits
system.cpu.dcache.ReadReq_misses::.cpu.data            1                       # number of ReadReq misses
system.cpu.dcache.ReadReq_misses::.switch_cpus.data           30                       # number of ReadReq misses
system.cpu.dcache.ReadReq_misses::total            31                       # number of ReadReq misses
system.cpu.dcache.ReadReq_miss_latency::.switch_cpus.data      2017000                       # number of ReadReq miss cycles
system.cpu.dcache.ReadReq_miss_latency::total      2017000                       # number of ReadReq miss cycles
system.cpu.dcache.ReadReq_accesses::.cpu.data            2                       # number of ReadReq accesses(hits+misses)
system.cpu.dcache.ReadReq_accesses::.switch_cpus.data          111                       # number of ReadReq accesses(hits+misses)
system.cpu.dcache.ReadReq_accesses::total          113                       # number of ReadReq accesses(hits+misses)
system.cpu.dcache.ReadReq_miss_rate::.cpu.data     0.500000                       # miss rate for ReadReq accesses
system.cpu.dcache.ReadReq_miss_rate::.switch_cpus.data     0.270270                       # miss rate for ReadReq accesses
system.cpu.dcache.ReadReq_miss_rate::total     0.274336                       # miss rate for ReadReq accesses
system.cpu.dcache.ReadReq_avg_miss_latency::.switch_cpus.data 67233.333333                       # average ReadReq miss latency
system.cpu.dcache.ReadReq_avg_miss_latency::total 65064.516129                       # average ReadReq miss latency
system.cpu.dcache.ReadReq_mshr_hits::.switch_cpus.data           19                       # number of ReadReq MSHR hits
system.cpu.dcache.ReadReq_mshr_hits::total           19                       # number of ReadReq MSHR hits
system.cpu.dcache.ReadReq_mshr_misses::.switch_cpus.data           11                       # number of ReadReq MSHR misses
system.cpu.dcache.ReadReq_mshr_misses::total           11                       # number of ReadReq MSHR misses
system.cpu.dcache.ReadReq_mshr_miss_latency::.switch_cpus.data       891500                       # number of ReadReq MSHR miss cycles
system.cpu.dcache.ReadReq_mshr_miss_latency::total       891500                       # number of ReadReq MSHR miss cycles
system.cpu.dcache.ReadReq_mshr_miss_rate::.switch_cpus.data     0.099099                       # mshr miss rate for ReadReq accesses
system.cpu.dcache.ReadReq_mshr_miss_rate::total     0.097345                       # mshr miss rate for ReadReq accesses
system.cpu.dcache.ReadReq_avg_mshr_miss_latency::.switch_cpus.data 81045.454545                       # average ReadReq mshr miss latency
system.cpu.dcache.ReadReq_avg_mshr_miss_latency::total 81045.454545                       # average ReadReq mshr miss latency
system.cpu.dcache.WriteReq_hits::.switch_cpus.data            5                       # number of WriteReq hits
system.cpu.dcache.WriteReq_hits::total              5                       # number of WriteReq hits
system.cpu.dcache.WriteReq_misses::.switch_cpus.data            1                       # number of WriteReq misses
system.cpu.dcache.WriteReq_misses::total            1                       # number of WriteReq misses
system.cpu.dcache.WriteReq_miss_latency::.switch_cpus.data        83000                       # number of WriteReq miss cycles
system.cpu.dcache.WriteReq_miss_latency::total        83000                       # number of WriteReq miss cycles
system.cpu.dcache.WriteReq_accesses::.switch_cpus.data            6                       # number of WriteReq accesses(hits+misses)
system.cpu.dcache.WriteReq_accesses::total            6                       # number of WriteReq accesses(hits+misses)
system.cpu.dcache.WriteReq_miss_rate::.switch_cpus.data     0.166667                       # miss rate for WriteReq accesses
system.cpu.dcache.WriteReq_miss_rate::total     0.166667                       # miss rate for WriteReq accesses
system.cpu.dcache.WriteReq_avg_miss_latency::.switch_cpus.data        83000                       # average WriteReq miss latency
system.cpu.dcache.WriteReq_avg_miss_latency::total        83000                       # average WriteReq miss latency
system.cpu.dcache.WriteReq_mshr_misses::.switch_cpus.data            1                       # number of WriteReq MSHR misses
system.cpu.dcache.WriteReq_mshr_misses::total            1                       # number of WriteReq MSHR misses
system.cpu.dcache.WriteReq_mshr_miss_latency::.switch_cpus.data        82000                       # number of WriteReq MSHR miss cycles
system.cpu.dcache.WriteReq_mshr_miss_latency::total        82000                       # number of WriteReq MSHR miss cycles
system.cpu.dcache.WriteReq_mshr_miss_rate::.switch_cpus.data     0.166667                       # mshr miss rate for WriteReq accesses
system.cpu.dcache.WriteReq_mshr_miss_rate::total     0.166667                       # mshr miss rate for WriteReq accesses
system.cpu.dcache.WriteReq_avg_mshr_miss_latency::.switch_cpus.data        82000                       # average WriteReq mshr miss latency
system.cpu.dcache.WriteReq_avg_mshr_miss_latency::total        82000                       # average WriteReq mshr miss latency
system.cpu.dcache.tags.pwrStateResidencyTicks::UNDEFINED 10604568173000                       # Cumulative time (in ticks) in various power states
system.cpu.dcache.tags.tagsinuse             0.000001                       # Cycle average of tags in use
system.cpu.dcache.tags.total_refs                 100                       # Total number of references to valid blocks.
system.cpu.dcache.tags.sampled_refs                13                       # Sample count of references to valid blocks.
system.cpu.dcache.tags.avg_refs              7.692308                       # Average number of references to valid blocks.
system.cpu.dcache.tags.warmup_cycle      10604567363000                       # Cycle when the warmup percentage was hit.
system.cpu.dcache.tags.occ_blocks::.cpu.data     0.000000                       # Average occupied blocks per requestor
system.cpu.dcache.tags.occ_blocks::.switch_cpus.data     0.000000                       # Average occupied blocks per requestor
system.cpu.dcache.tags.occ_percent::.cpu.data     0.000000                       # Average percentage of cache occupancy
system.cpu.dcache.tags.occ_percent::.switch_cpus.data     0.000000                       # Average percentage of cache occupancy
system.cpu.dcache.tags.occ_percent::total     0.000000                       # Average percentage of cache occupancy
system.cpu.dcache.tags.occ_task_id_blocks::1024           13                       # Occupied blocks per task id
system.cpu.dcache.tags.age_task_id_blocks_1024::0           13                       # Occupied blocks per task id
system.cpu.dcache.tags.occ_task_id_percent::1024     0.012695                       # Percentage of cache occupancy per task id
system.cpu.dcache.tags.tag_accesses               251                       # Number of tag accesses
system.cpu.dcache.tags.data_accesses              251                       # Number of data accesses

---------- End Simulation Statistics   ----------
